
---------- Begin Simulation Statistics ----------
final_tick                               2261748478000                       # Number of ticks from beginning of simulation (restored from checkpoints and never reset)
host_inst_rate                              129565820                       # Simulator instruction rate (inst/s)
host_mem_usage                                 791372                       # Number of bytes of host memory used
host_op_rate                                129523533                       # Simulator op (including micro ops) rate (op/s)
host_seconds                                     0.91                       # Real time elapsed on the host
host_tick_rate                             1629712807                       # Simulator tick rate (ticks/s)
sim_freq                                 1000000000000                       # Frequency of simulated ticks
sim_insts                                   117472470                       # Number of instructions simulated
sim_ops                                     117472470                       # Number of ops (including micro ops) simulated
sim_seconds                                  0.001478                       # Number of seconds simulated
sim_ticks                                  1478223500                       # Number of ticks simulated
system.cpu0.committedInsts                          0                       # Number of instructions committed
system.cpu0.committedOps                            0                       # Number of ops (including micro ops) committed
system.cpu0.dtb.data_accesses                       0                       # DTB accesses
system.cpu0.dtb.data_acv                            0                       # DTB access violations
system.cpu0.dtb.data_hits                           0                       # DTB hits
system.cpu0.dtb.data_misses                         0                       # DTB misses
system.cpu0.dtb.fetch_accesses                      0                       # ITB accesses
system.cpu0.dtb.fetch_acv                           0                       # ITB acv
system.cpu0.dtb.fetch_hits                          0                       # ITB hits
system.cpu0.dtb.fetch_misses                        0                       # ITB misses
system.cpu0.dtb.read_accesses                       0                       # DTB read accesses
system.cpu0.dtb.read_acv                            0                       # DTB read access violations
system.cpu0.dtb.read_hits                           0                       # DTB read hits
system.cpu0.dtb.read_misses                         0                       # DTB read misses
system.cpu0.dtb.write_accesses                      0                       # DTB write accesses
system.cpu0.dtb.write_acv                           0                       # DTB write access violations
system.cpu0.dtb.write_hits                          0                       # DTB write hits
system.cpu0.dtb.write_misses                        0                       # DTB write misses
system.cpu0.idle_fraction                           0                       # Percentage of idle cycles
system.cpu0.itb.data_accesses                       0                       # DTB accesses
system.cpu0.itb.data_acv                            0                       # DTB access violations
system.cpu0.itb.data_hits                           0                       # DTB hits
system.cpu0.itb.data_misses                         0                       # DTB misses
system.cpu0.itb.fetch_accesses                      0                       # ITB accesses
system.cpu0.itb.fetch_acv                           0                       # ITB acv
system.cpu0.itb.fetch_hits                          0                       # ITB hits
system.cpu0.itb.fetch_misses                        0                       # ITB misses
system.cpu0.itb.read_accesses                       0                       # DTB read accesses
system.cpu0.itb.read_acv                            0                       # DTB read access violations
system.cpu0.itb.read_hits                           0                       # DTB read hits
system.cpu0.itb.read_misses                         0                       # DTB read misses
system.cpu0.itb.write_accesses                      0                       # DTB write accesses
system.cpu0.itb.write_acv                           0                       # DTB write access violations
system.cpu0.itb.write_hits                          0                       # DTB write hits
system.cpu0.itb.write_misses                        0                       # DTB write misses
system.cpu0.kern.callpal::wripir                    1      0.24%      0.24% # number of callpals executed
system.cpu0.kern.callpal::swpctx                   12      2.86%      3.10% # number of callpals executed
system.cpu0.kern.callpal::tbi                       2      0.48%      3.58% # number of callpals executed
system.cpu0.kern.callpal::swpipl                  369     88.07%     91.65% # number of callpals executed
system.cpu0.kern.callpal::rdps                      4      0.95%     92.60% # number of callpals executed
system.cpu0.kern.callpal::rdusp                     1      0.24%     92.84% # number of callpals executed
system.cpu0.kern.callpal::rti                      20      4.77%     97.61% # number of callpals executed
system.cpu0.kern.callpal::callsys                   9      2.15%     99.76% # number of callpals executed
system.cpu0.kern.callpal::imb                       1      0.24%    100.00% # number of callpals executed
system.cpu0.kern.callpal::total                   419                       # number of callpals executed
system.cpu0.kern.inst.arm                           0                       # number of arm instructions executed
system.cpu0.kern.inst.hwrei                       628                       # number of hwrei instructions executed
system.cpu0.kern.inst.quiesce                       4                       # number of quiesce instructions executed
system.cpu0.kern.ipl_count::0                     176     44.90%     44.90% # number of times we switched to this ipl
system.cpu0.kern.ipl_count::22                      2      0.51%     45.41% # number of times we switched to this ipl
system.cpu0.kern.ipl_count::30                      1      0.26%     45.66% # number of times we switched to this ipl
system.cpu0.kern.ipl_count::31                    213     54.34%    100.00% # number of times we switched to this ipl
system.cpu0.kern.ipl_count::total                 392                       # number of times we switched to this ipl
system.cpu0.kern.ipl_good::0                      176     49.72%     49.72% # number of times we switched to this ipl from a different ipl
system.cpu0.kern.ipl_good::22                       2      0.56%     50.28% # number of times we switched to this ipl from a different ipl
system.cpu0.kern.ipl_good::30                       1      0.28%     50.56% # number of times we switched to this ipl from a different ipl
system.cpu0.kern.ipl_good::31                     175     49.44%    100.00% # number of times we switched to this ipl from a different ipl
system.cpu0.kern.ipl_good::total                  354                       # number of times we switched to this ipl from a different ipl
system.cpu0.kern.ipl_ticks::0              1398565000     96.29%     96.29% # number of cycles we spent at this ipl
system.cpu0.kern.ipl_ticks::22                1268500      0.09%     96.38% # number of cycles we spent at this ipl
system.cpu0.kern.ipl_ticks::30                 977000      0.07%     96.45% # number of cycles we spent at this ipl
system.cpu0.kern.ipl_ticks::31               51577000      3.55%    100.00% # number of cycles we spent at this ipl
system.cpu0.kern.ipl_ticks::total          1452387500                       # number of cycles we spent at this ipl
system.cpu0.kern.ipl_used::0                        1                       # fraction of swpipl calls that actually changed the ipl
system.cpu0.kern.ipl_used::22                       1                       # fraction of swpipl calls that actually changed the ipl
system.cpu0.kern.ipl_used::30                       1                       # fraction of swpipl calls that actually changed the ipl
system.cpu0.kern.ipl_used::31                0.821596                       # fraction of swpipl calls that actually changed the ipl
system.cpu0.kern.ipl_used::total             0.903061                       # fraction of swpipl calls that actually changed the ipl
system.cpu0.kern.mode_good::kernel                 18                      
system.cpu0.kern.mode_good::user                   17                      
system.cpu0.kern.mode_good::idle                    0                      
system.cpu0.kern.mode_switch::kernel               33                       # number of protection mode switches
system.cpu0.kern.mode_switch::user                 17                       # number of protection mode switches
system.cpu0.kern.mode_switch::idle                  0                       # number of protection mode switches
system.cpu0.kern.mode_switch_good::kernel     0.545455                       # fraction of useful protection mode switches
system.cpu0.kern.mode_switch_good::user             1                       # fraction of useful protection mode switches
system.cpu0.kern.mode_switch_good::idle           nan                       # fraction of useful protection mode switches
system.cpu0.kern.mode_switch_good::total     0.700000                       # fraction of useful protection mode switches
system.cpu0.kern.mode_ticks::kernel         240717000     77.86%     77.86% # number of ticks spent at the given mode
system.cpu0.kern.mode_ticks::user            68434500     22.14%    100.00% # number of ticks spent at the given mode
system.cpu0.kern.mode_ticks::idle                   0      0.00%    100.00% # number of ticks spent at the given mode
system.cpu0.kern.swap_context                      12                       # number of times the context was actually changed
system.cpu0.not_idle_fraction                       1                       # Percentage of non-idle cycles
system.cpu0.numCycles                               0                       # number of cpu cycles simulated
system.cpu0.numWorkItemsCompleted                   0                       # number of work items this cpu completed
system.cpu0.numWorkItemsStarted                     0                       # number of work items this cpu started
system.cpu0.num_busy_cycles                         0                       # Number of busy cycles
system.cpu0.num_conditional_control_insts            0                       # number of instructions that are conditional controls
system.cpu0.num_fp_alu_accesses                     0                       # Number of float alu accesses
system.cpu0.num_fp_insts                            0                       # number of float instructions
system.cpu0.num_fp_register_reads                   0                       # number of times the floating registers were read
system.cpu0.num_fp_register_writes                  0                       # number of times the floating registers were written
system.cpu0.num_func_calls                          0                       # number of times a function call or return occured
system.cpu0.num_idle_cycles                         0                       # Number of idle cycles
system.cpu0.num_int_alu_accesses                    0                       # Number of integer alu accesses
system.cpu0.num_int_insts                           0                       # number of integer instructions
system.cpu0.num_int_register_reads                  0                       # number of times the integer registers were read
system.cpu0.num_int_register_writes                 0                       # number of times the integer registers were written
system.cpu0.num_load_insts                          0                       # Number of load instructions
system.cpu0.num_mem_refs                            0                       # number of memory refs
system.cpu0.num_store_insts                         0                       # Number of store instructions
system.cpu0.num_vec_alu_accesses                    0                       # Number of vector alu accesses
system.cpu0.num_vec_insts                           0                       # number of vector instructions
system.cpu0.num_vec_register_reads                  0                       # number of times the vector registers were read
system.cpu0.num_vec_register_writes                 0                       # number of times the vector registers were written
system.cpu0.op_class::No_OpClass                    0                       # Class of executed instruction
system.cpu0.op_class::IntAlu                        0                       # Class of executed instruction
system.cpu0.op_class::IntMult                       0                       # Class of executed instruction
system.cpu0.op_class::IntDiv                        0                       # Class of executed instruction
system.cpu0.op_class::FloatAdd                      0                       # Class of executed instruction
system.cpu0.op_class::FloatCmp                      0                       # Class of executed instruction
system.cpu0.op_class::FloatCvt                      0                       # Class of executed instruction
system.cpu0.op_class::FloatMult                     0                       # Class of executed instruction
system.cpu0.op_class::FloatMultAcc                  0                       # Class of executed instruction
system.cpu0.op_class::FloatDiv                      0                       # Class of executed instruction
system.cpu0.op_class::FloatMisc                     0                       # Class of executed instruction
system.cpu0.op_class::FloatSqrt                     0                       # Class of executed instruction
system.cpu0.op_class::SimdAdd                       0                       # Class of executed instruction
system.cpu0.op_class::SimdAddAcc                    0                       # Class of executed instruction
system.cpu0.op_class::SimdAlu                       0                       # Class of executed instruction
system.cpu0.op_class::SimdCmp                       0                       # Class of executed instruction
system.cpu0.op_class::SimdCvt                       0                       # Class of executed instruction
system.cpu0.op_class::SimdMisc                      0                       # Class of executed instruction
system.cpu0.op_class::SimdMult                      0                       # Class of executed instruction
system.cpu0.op_class::SimdMultAcc                   0                       # Class of executed instruction
system.cpu0.op_class::SimdShift                     0                       # Class of executed instruction
system.cpu0.op_class::SimdShiftAcc                  0                       # Class of executed instruction
system.cpu0.op_class::SimdDiv                       0                       # Class of executed instruction
system.cpu0.op_class::SimdSqrt                      0                       # Class of executed instruction
system.cpu0.op_class::SimdFloatAdd                  0                       # Class of executed instruction
system.cpu0.op_class::SimdFloatAlu                  0                       # Class of executed instruction
system.cpu0.op_class::SimdFloatCmp                  0                       # Class of executed instruction
system.cpu0.op_class::SimdFloatCvt                  0                       # Class of executed instruction
system.cpu0.op_class::SimdFloatDiv                  0                       # Class of executed instruction
system.cpu0.op_class::SimdFloatMisc                 0                       # Class of executed instruction
system.cpu0.op_class::SimdFloatMult                 0                       # Class of executed instruction
system.cpu0.op_class::SimdFloatMultAcc              0                       # Class of executed instruction
system.cpu0.op_class::SimdFloatSqrt                 0                       # Class of executed instruction
system.cpu0.op_class::SimdReduceAdd                 0                       # Class of executed instruction
system.cpu0.op_class::SimdReduceAlu                 0                       # Class of executed instruction
system.cpu0.op_class::SimdReduceCmp                 0                       # Class of executed instruction
system.cpu0.op_class::SimdFloatReduceAdd            0                       # Class of executed instruction
system.cpu0.op_class::SimdFloatReduceCmp            0                       # Class of executed instruction
system.cpu0.op_class::SimdAes                       0                       # Class of executed instruction
system.cpu0.op_class::SimdAesMix                    0                       # Class of executed instruction
system.cpu0.op_class::SimdSha1Hash                  0                       # Class of executed instruction
system.cpu0.op_class::SimdSha1Hash2                 0                       # Class of executed instruction
system.cpu0.op_class::SimdSha256Hash                0                       # Class of executed instruction
system.cpu0.op_class::SimdSha256Hash2               0                       # Class of executed instruction
system.cpu0.op_class::SimdShaSigma2                 0                       # Class of executed instruction
system.cpu0.op_class::SimdShaSigma3                 0                       # Class of executed instruction
system.cpu0.op_class::SimdPredAlu                   0                       # Class of executed instruction
system.cpu0.op_class::MemRead                       0                       # Class of executed instruction
system.cpu0.op_class::MemWrite                      0                       # Class of executed instruction
system.cpu0.op_class::FloatMemRead                  0                       # Class of executed instruction
system.cpu0.op_class::FloatMemWrite                 0                       # Class of executed instruction
system.cpu0.op_class::IprAccess                     0                       # Class of executed instruction
system.cpu0.op_class::InstPrefetch                  0                       # Class of executed instruction
system.cpu0.op_class::total                         0                       # Class of executed instruction
system.cpu1.committedInsts                          0                       # Number of instructions committed
system.cpu1.committedOps                            0                       # Number of ops (including micro ops) committed
system.cpu1.dtb.data_accesses                       0                       # DTB accesses
system.cpu1.dtb.data_acv                            0                       # DTB access violations
system.cpu1.dtb.data_hits                           0                       # DTB hits
system.cpu1.dtb.data_misses                         0                       # DTB misses
system.cpu1.dtb.fetch_accesses                      0                       # ITB accesses
system.cpu1.dtb.fetch_acv                           0                       # ITB acv
system.cpu1.dtb.fetch_hits                          0                       # ITB hits
system.cpu1.dtb.fetch_misses                        0                       # ITB misses
system.cpu1.dtb.read_accesses                       0                       # DTB read accesses
system.cpu1.dtb.read_acv                            0                       # DTB read access violations
system.cpu1.dtb.read_hits                           0                       # DTB read hits
system.cpu1.dtb.read_misses                         0                       # DTB read misses
system.cpu1.dtb.write_accesses                      0                       # DTB write accesses
system.cpu1.dtb.write_acv                           0                       # DTB write access violations
system.cpu1.dtb.write_hits                          0                       # DTB write hits
system.cpu1.dtb.write_misses                        0                       # DTB write misses
system.cpu1.idle_fraction                           1                       # Percentage of idle cycles
system.cpu1.itb.data_accesses                       0                       # DTB accesses
system.cpu1.itb.data_acv                            0                       # DTB access violations
system.cpu1.itb.data_hits                           0                       # DTB hits
system.cpu1.itb.data_misses                         0                       # DTB misses
system.cpu1.itb.fetch_accesses                      0                       # ITB accesses
system.cpu1.itb.fetch_acv                           0                       # ITB acv
system.cpu1.itb.fetch_hits                          0                       # ITB hits
system.cpu1.itb.fetch_misses                        0                       # ITB misses
system.cpu1.itb.read_accesses                       0                       # DTB read accesses
system.cpu1.itb.read_acv                            0                       # DTB read access violations
system.cpu1.itb.read_hits                           0                       # DTB read hits
system.cpu1.itb.read_misses                         0                       # DTB read misses
system.cpu1.itb.write_accesses                      0                       # DTB write accesses
system.cpu1.itb.write_acv                           0                       # DTB write access violations
system.cpu1.itb.write_hits                          0                       # DTB write hits
system.cpu1.itb.write_misses                        0                       # DTB write misses
system.cpu1.kern.callpal::wripir                    1      0.31%      0.31% # number of callpals executed
system.cpu1.kern.callpal::swpctx                   58     18.12%     18.44% # number of callpals executed
system.cpu1.kern.callpal::tbi                       5      1.56%     20.00% # number of callpals executed
system.cpu1.kern.callpal::swpipl                  169     52.81%     72.81% # number of callpals executed
system.cpu1.kern.callpal::rdps                      5      1.56%     74.37% # number of callpals executed
system.cpu1.kern.callpal::rti                      71     22.19%     96.56% # number of callpals executed
system.cpu1.kern.callpal::callsys                   9      2.81%     99.37% # number of callpals executed
system.cpu1.kern.callpal::imb                       2      0.62%    100.00% # number of callpals executed
system.cpu1.kern.callpal::total                   320                       # number of callpals executed
system.cpu1.kern.inst.arm                           0                       # number of arm instructions executed
system.cpu1.kern.inst.hwrei                       834                       # number of hwrei instructions executed
system.cpu1.kern.inst.quiesce                       4                       # number of quiesce instructions executed
system.cpu1.kern.ipl_count::0                     107     43.85%     43.85% # number of times we switched to this ipl
system.cpu1.kern.ipl_count::22                      2      0.82%     44.67% # number of times we switched to this ipl
system.cpu1.kern.ipl_count::30                      2      0.82%     45.49% # number of times we switched to this ipl
system.cpu1.kern.ipl_count::31                    133     54.51%    100.00% # number of times we switched to this ipl
system.cpu1.kern.ipl_count::total                 244                       # number of times we switched to this ipl
system.cpu1.kern.ipl_good::0                      107     49.54%     49.54% # number of times we switched to this ipl from a different ipl
system.cpu1.kern.ipl_good::22                       2      0.93%     50.46% # number of times we switched to this ipl from a different ipl
system.cpu1.kern.ipl_good::30                       2      0.93%     51.39% # number of times we switched to this ipl from a different ipl
system.cpu1.kern.ipl_good::31                     105     48.61%    100.00% # number of times we switched to this ipl from a different ipl
system.cpu1.kern.ipl_good::total                  216                       # number of times we switched to this ipl from a different ipl
system.cpu1.kern.ipl_ticks::0              1626839000     98.14%     98.14% # number of cycles we spent at this ipl
system.cpu1.kern.ipl_ticks::22                1019500      0.06%     98.20% # number of cycles we spent at this ipl
system.cpu1.kern.ipl_ticks::30                1713000      0.10%     98.31% # number of cycles we spent at this ipl
system.cpu1.kern.ipl_ticks::31               28043000      1.69%    100.00% # number of cycles we spent at this ipl
system.cpu1.kern.ipl_ticks::total          1657614500                       # number of cycles we spent at this ipl
system.cpu1.kern.ipl_used::0                        1                       # fraction of swpipl calls that actually changed the ipl
system.cpu1.kern.ipl_used::22                       1                       # fraction of swpipl calls that actually changed the ipl
system.cpu1.kern.ipl_used::30                       1                       # fraction of swpipl calls that actually changed the ipl
system.cpu1.kern.ipl_used::31                0.789474                       # fraction of swpipl calls that actually changed the ipl
system.cpu1.kern.ipl_used::total             0.885246                       # fraction of swpipl calls that actually changed the ipl
system.cpu1.kern.mode_good::kernel                 68                      
system.cpu1.kern.mode_good::user                   67                      
system.cpu1.kern.mode_good::idle                    1                      
system.cpu1.kern.mode_switch::kernel              123                       # number of protection mode switches
system.cpu1.kern.mode_switch::user                 67                       # number of protection mode switches
system.cpu1.kern.mode_switch::idle                  6                       # number of protection mode switches
system.cpu1.kern.mode_switch_good::kernel     0.552846                       # fraction of useful protection mode switches
system.cpu1.kern.mode_switch_good::user             1                       # fraction of useful protection mode switches
system.cpu1.kern.mode_switch_good::idle      0.166667                       # fraction of useful protection mode switches
system.cpu1.kern.mode_switch_good::total     0.693878                       # fraction of useful protection mode switches
system.cpu1.kern.mode_ticks::kernel         216821000     15.25%     15.25% # number of ticks spent at the given mode
system.cpu1.kern.mode_ticks::user            23124500      1.63%     16.87% # number of ticks spent at the given mode
system.cpu1.kern.mode_ticks::idle          1182083000     83.13%    100.00% # number of ticks spent at the given mode
system.cpu1.kern.swap_context                      58                       # number of times the context was actually changed
system.cpu1.not_idle_fraction                       0                       # Percentage of non-idle cycles
system.cpu1.numCycles                               0                       # number of cpu cycles simulated
system.cpu1.numWorkItemsCompleted                   0                       # number of work items this cpu completed
system.cpu1.numWorkItemsStarted                     0                       # number of work items this cpu started
system.cpu1.num_busy_cycles                         0                       # Number of busy cycles
system.cpu1.num_conditional_control_insts            0                       # number of instructions that are conditional controls
system.cpu1.num_fp_alu_accesses                     0                       # Number of float alu accesses
system.cpu1.num_fp_insts                            0                       # number of float instructions
system.cpu1.num_fp_register_reads                   0                       # number of times the floating registers were read
system.cpu1.num_fp_register_writes                  0                       # number of times the floating registers were written
system.cpu1.num_func_calls                          0                       # number of times a function call or return occured
system.cpu1.num_idle_cycles                         0                       # Number of idle cycles
system.cpu1.num_int_alu_accesses                    0                       # Number of integer alu accesses
system.cpu1.num_int_insts                           0                       # number of integer instructions
system.cpu1.num_int_register_reads                  0                       # number of times the integer registers were read
system.cpu1.num_int_register_writes                 0                       # number of times the integer registers were written
system.cpu1.num_load_insts                          0                       # Number of load instructions
system.cpu1.num_mem_refs                            0                       # number of memory refs
system.cpu1.num_store_insts                         0                       # Number of store instructions
system.cpu1.num_vec_alu_accesses                    0                       # Number of vector alu accesses
system.cpu1.num_vec_insts                           0                       # number of vector instructions
system.cpu1.num_vec_register_reads                  0                       # number of times the vector registers were read
system.cpu1.num_vec_register_writes                 0                       # number of times the vector registers were written
system.cpu1.op_class::No_OpClass                    0                       # Class of executed instruction
system.cpu1.op_class::IntAlu                        0                       # Class of executed instruction
system.cpu1.op_class::IntMult                       0                       # Class of executed instruction
system.cpu1.op_class::IntDiv                        0                       # Class of executed instruction
system.cpu1.op_class::FloatAdd                      0                       # Class of executed instruction
system.cpu1.op_class::FloatCmp                      0                       # Class of executed instruction
system.cpu1.op_class::FloatCvt                      0                       # Class of executed instruction
system.cpu1.op_class::FloatMult                     0                       # Class of executed instruction
system.cpu1.op_class::FloatMultAcc                  0                       # Class of executed instruction
system.cpu1.op_class::FloatDiv                      0                       # Class of executed instruction
system.cpu1.op_class::FloatMisc                     0                       # Class of executed instruction
system.cpu1.op_class::FloatSqrt                     0                       # Class of executed instruction
system.cpu1.op_class::SimdAdd                       0                       # Class of executed instruction
system.cpu1.op_class::SimdAddAcc                    0                       # Class of executed instruction
system.cpu1.op_class::SimdAlu                       0                       # Class of executed instruction
system.cpu1.op_class::SimdCmp                       0                       # Class of executed instruction
system.cpu1.op_class::SimdCvt                       0                       # Class of executed instruction
system.cpu1.op_class::SimdMisc                      0                       # Class of executed instruction
system.cpu1.op_class::SimdMult                      0                       # Class of executed instruction
system.cpu1.op_class::SimdMultAcc                   0                       # Class of executed instruction
system.cpu1.op_class::SimdShift                     0                       # Class of executed instruction
system.cpu1.op_class::SimdShiftAcc                  0                       # Class of executed instruction
system.cpu1.op_class::SimdDiv                       0                       # Class of executed instruction
system.cpu1.op_class::SimdSqrt                      0                       # Class of executed instruction
system.cpu1.op_class::SimdFloatAdd                  0                       # Class of executed instruction
system.cpu1.op_class::SimdFloatAlu                  0                       # Class of executed instruction
system.cpu1.op_class::SimdFloatCmp                  0                       # Class of executed instruction
system.cpu1.op_class::SimdFloatCvt                  0                       # Class of executed instruction
system.cpu1.op_class::SimdFloatDiv                  0                       # Class of executed instruction
system.cpu1.op_class::SimdFloatMisc                 0                       # Class of executed instruction
system.cpu1.op_class::SimdFloatMult                 0                       # Class of executed instruction
system.cpu1.op_class::SimdFloatMultAcc              0                       # Class of executed instruction
system.cpu1.op_class::SimdFloatSqrt                 0                       # Class of executed instruction
system.cpu1.op_class::SimdReduceAdd                 0                       # Class of executed instruction
system.cpu1.op_class::SimdReduceAlu                 0                       # Class of executed instruction
system.cpu1.op_class::SimdReduceCmp                 0                       # Class of executed instruction
system.cpu1.op_class::SimdFloatReduceAdd            0                       # Class of executed instruction
system.cpu1.op_class::SimdFloatReduceCmp            0                       # Class of executed instruction
system.cpu1.op_class::SimdAes                       0                       # Class of executed instruction
system.cpu1.op_class::SimdAesMix                    0                       # Class of executed instruction
system.cpu1.op_class::SimdSha1Hash                  0                       # Class of executed instruction
system.cpu1.op_class::SimdSha1Hash2                 0                       # Class of executed instruction
system.cpu1.op_class::SimdSha256Hash                0                       # Class of executed instruction
system.cpu1.op_class::SimdSha256Hash2               0                       # Class of executed instruction
system.cpu1.op_class::SimdShaSigma2                 0                       # Class of executed instruction
system.cpu1.op_class::SimdShaSigma3                 0                       # Class of executed instruction
system.cpu1.op_class::SimdPredAlu                   0                       # Class of executed instruction
system.cpu1.op_class::MemRead                       0                       # Class of executed instruction
system.cpu1.op_class::MemWrite                      0                       # Class of executed instruction
system.cpu1.op_class::FloatMemRead                  0                       # Class of executed instruction
system.cpu1.op_class::FloatMemWrite                 0                       # Class of executed instruction
system.cpu1.op_class::IprAccess                     0                       # Class of executed instruction
system.cpu1.op_class::InstPrefetch                  0                       # Class of executed instruction
system.cpu1.op_class::total                         0                       # Class of executed instruction
system.cpu2.committedInsts                          0                       # Number of instructions committed
system.cpu2.committedOps                            0                       # Number of ops (including micro ops) committed
system.cpu2.dtb.data_accesses                       0                       # DTB accesses
system.cpu2.dtb.data_acv                            0                       # DTB access violations
system.cpu2.dtb.data_hits                           0                       # DTB hits
system.cpu2.dtb.data_misses                         0                       # DTB misses
system.cpu2.dtb.fetch_accesses                      0                       # ITB accesses
system.cpu2.dtb.fetch_acv                           0                       # ITB acv
system.cpu2.dtb.fetch_hits                          0                       # ITB hits
system.cpu2.dtb.fetch_misses                        0                       # ITB misses
system.cpu2.dtb.read_accesses                       0                       # DTB read accesses
system.cpu2.dtb.read_acv                            0                       # DTB read access violations
system.cpu2.dtb.read_hits                           0                       # DTB read hits
system.cpu2.dtb.read_misses                         0                       # DTB read misses
system.cpu2.dtb.write_accesses                      0                       # DTB write accesses
system.cpu2.dtb.write_acv                           0                       # DTB write access violations
system.cpu2.dtb.write_hits                          0                       # DTB write hits
system.cpu2.dtb.write_misses                        0                       # DTB write misses
system.cpu2.idle_fraction                           1                       # Percentage of idle cycles
system.cpu2.itb.data_accesses                       0                       # DTB accesses
system.cpu2.itb.data_acv                            0                       # DTB access violations
system.cpu2.itb.data_hits                           0                       # DTB hits
system.cpu2.itb.data_misses                         0                       # DTB misses
system.cpu2.itb.fetch_accesses                      0                       # ITB accesses
system.cpu2.itb.fetch_acv                           0                       # ITB acv
system.cpu2.itb.fetch_hits                          0                       # ITB hits
system.cpu2.itb.fetch_misses                        0                       # ITB misses
system.cpu2.itb.read_accesses                       0                       # DTB read accesses
system.cpu2.itb.read_acv                            0                       # DTB read access violations
system.cpu2.itb.read_hits                           0                       # DTB read hits
system.cpu2.itb.read_misses                         0                       # DTB read misses
system.cpu2.itb.write_accesses                      0                       # DTB write accesses
system.cpu2.itb.write_acv                           0                       # DTB write access violations
system.cpu2.itb.write_hits                          0                       # DTB write hits
system.cpu2.itb.write_misses                        0                       # DTB write misses
system.cpu2.kern.callpal::swpipl                   32     82.05%     82.05% # number of callpals executed
system.cpu2.kern.callpal::rdps                      4     10.26%     92.31% # number of callpals executed
system.cpu2.kern.callpal::rti                       3      7.69%    100.00% # number of callpals executed
system.cpu2.kern.callpal::total                    39                       # number of callpals executed
system.cpu2.kern.inst.arm                           0                       # number of arm instructions executed
system.cpu2.kern.inst.hwrei                        42                       # number of hwrei instructions executed
system.cpu2.kern.inst.quiesce                       3                       # number of quiesce instructions executed
system.cpu2.kern.ipl_count::0                       9     23.68%     23.68% # number of times we switched to this ipl
system.cpu2.kern.ipl_count::22                      2      5.26%     28.95% # number of times we switched to this ipl
system.cpu2.kern.ipl_count::30                      2      5.26%     34.21% # number of times we switched to this ipl
system.cpu2.kern.ipl_count::31                     25     65.79%    100.00% # number of times we switched to this ipl
system.cpu2.kern.ipl_count::total                  38                       # number of times we switched to this ipl
system.cpu2.kern.ipl_good::0                        9     40.91%     40.91% # number of times we switched to this ipl from a different ipl
system.cpu2.kern.ipl_good::22                       2      9.09%     50.00% # number of times we switched to this ipl from a different ipl
system.cpu2.kern.ipl_good::30                       2      9.09%     59.09% # number of times we switched to this ipl from a different ipl
system.cpu2.kern.ipl_good::31                       9     40.91%    100.00% # number of times we switched to this ipl from a different ipl
system.cpu2.kern.ipl_good::total                   22                       # number of times we switched to this ipl from a different ipl
system.cpu2.kern.ipl_ticks::0              1650267000     99.57%     99.57% # number of cycles we spent at this ipl
system.cpu2.kern.ipl_ticks::22                 806000      0.05%     99.62% # number of cycles we spent at this ipl
system.cpu2.kern.ipl_ticks::30                1062000      0.06%     99.68% # number of cycles we spent at this ipl
system.cpu2.kern.ipl_ticks::31                5264500      0.32%    100.00% # number of cycles we spent at this ipl
system.cpu2.kern.ipl_ticks::total          1657399500                       # number of cycles we spent at this ipl
system.cpu2.kern.ipl_used::0                        1                       # fraction of swpipl calls that actually changed the ipl
system.cpu2.kern.ipl_used::22                       1                       # fraction of swpipl calls that actually changed the ipl
system.cpu2.kern.ipl_used::30                       1                       # fraction of swpipl calls that actually changed the ipl
system.cpu2.kern.ipl_used::31                0.360000                       # fraction of swpipl calls that actually changed the ipl
system.cpu2.kern.ipl_used::total             0.578947                       # fraction of swpipl calls that actually changed the ipl
system.cpu2.kern.mode_good::kernel                  0                      
system.cpu2.kern.mode_good::user                    0                      
system.cpu2.kern.mode_good::idle                    0                      
system.cpu2.kern.mode_switch::kernel                3                       # number of protection mode switches
system.cpu2.kern.mode_switch::user                  0                       # number of protection mode switches
system.cpu2.kern.mode_switch::idle                  0                       # number of protection mode switches
system.cpu2.kern.mode_switch_good::kernel            0                       # fraction of useful protection mode switches
system.cpu2.kern.mode_switch_good::user           nan                       # fraction of useful protection mode switches
system.cpu2.kern.mode_switch_good::idle           nan                       # fraction of useful protection mode switches
system.cpu2.kern.mode_switch_good::total            0                       # fraction of useful protection mode switches
system.cpu2.kern.mode_ticks::kernel                 0                       # number of ticks spent at the given mode
system.cpu2.kern.mode_ticks::user                   0                       # number of ticks spent at the given mode
system.cpu2.kern.mode_ticks::idle                   0                       # number of ticks spent at the given mode
system.cpu2.kern.swap_context                       0                       # number of times the context was actually changed
system.cpu2.not_idle_fraction                       0                       # Percentage of non-idle cycles
system.cpu2.numCycles                               0                       # number of cpu cycles simulated
system.cpu2.numWorkItemsCompleted                   0                       # number of work items this cpu completed
system.cpu2.numWorkItemsStarted                     0                       # number of work items this cpu started
system.cpu2.num_busy_cycles                         0                       # Number of busy cycles
system.cpu2.num_conditional_control_insts            0                       # number of instructions that are conditional controls
system.cpu2.num_fp_alu_accesses                     0                       # Number of float alu accesses
system.cpu2.num_fp_insts                            0                       # number of float instructions
system.cpu2.num_fp_register_reads                   0                       # number of times the floating registers were read
system.cpu2.num_fp_register_writes                  0                       # number of times the floating registers were written
system.cpu2.num_func_calls                          0                       # number of times a function call or return occured
system.cpu2.num_idle_cycles                         0                       # Number of idle cycles
system.cpu2.num_int_alu_accesses                    0                       # Number of integer alu accesses
system.cpu2.num_int_insts                           0                       # number of integer instructions
system.cpu2.num_int_register_reads                  0                       # number of times the integer registers were read
system.cpu2.num_int_register_writes                 0                       # number of times the integer registers were written
system.cpu2.num_load_insts                          0                       # Number of load instructions
system.cpu2.num_mem_refs                            0                       # number of memory refs
system.cpu2.num_store_insts                         0                       # Number of store instructions
system.cpu2.num_vec_alu_accesses                    0                       # Number of vector alu accesses
system.cpu2.num_vec_insts                           0                       # number of vector instructions
system.cpu2.num_vec_register_reads                  0                       # number of times the vector registers were read
system.cpu2.num_vec_register_writes                 0                       # number of times the vector registers were written
system.cpu2.op_class::No_OpClass                    0                       # Class of executed instruction
system.cpu2.op_class::IntAlu                        0                       # Class of executed instruction
system.cpu2.op_class::IntMult                       0                       # Class of executed instruction
system.cpu2.op_class::IntDiv                        0                       # Class of executed instruction
system.cpu2.op_class::FloatAdd                      0                       # Class of executed instruction
system.cpu2.op_class::FloatCmp                      0                       # Class of executed instruction
system.cpu2.op_class::FloatCvt                      0                       # Class of executed instruction
system.cpu2.op_class::FloatMult                     0                       # Class of executed instruction
system.cpu2.op_class::FloatMultAcc                  0                       # Class of executed instruction
system.cpu2.op_class::FloatDiv                      0                       # Class of executed instruction
system.cpu2.op_class::FloatMisc                     0                       # Class of executed instruction
system.cpu2.op_class::FloatSqrt                     0                       # Class of executed instruction
system.cpu2.op_class::SimdAdd                       0                       # Class of executed instruction
system.cpu2.op_class::SimdAddAcc                    0                       # Class of executed instruction
system.cpu2.op_class::SimdAlu                       0                       # Class of executed instruction
system.cpu2.op_class::SimdCmp                       0                       # Class of executed instruction
system.cpu2.op_class::SimdCvt                       0                       # Class of executed instruction
system.cpu2.op_class::SimdMisc                      0                       # Class of executed instruction
system.cpu2.op_class::SimdMult                      0                       # Class of executed instruction
system.cpu2.op_class::SimdMultAcc                   0                       # Class of executed instruction
system.cpu2.op_class::SimdShift                     0                       # Class of executed instruction
system.cpu2.op_class::SimdShiftAcc                  0                       # Class of executed instruction
system.cpu2.op_class::SimdDiv                       0                       # Class of executed instruction
system.cpu2.op_class::SimdSqrt                      0                       # Class of executed instruction
system.cpu2.op_class::SimdFloatAdd                  0                       # Class of executed instruction
system.cpu2.op_class::SimdFloatAlu                  0                       # Class of executed instruction
system.cpu2.op_class::SimdFloatCmp                  0                       # Class of executed instruction
system.cpu2.op_class::SimdFloatCvt                  0                       # Class of executed instruction
system.cpu2.op_class::SimdFloatDiv                  0                       # Class of executed instruction
system.cpu2.op_class::SimdFloatMisc                 0                       # Class of executed instruction
system.cpu2.op_class::SimdFloatMult                 0                       # Class of executed instruction
system.cpu2.op_class::SimdFloatMultAcc              0                       # Class of executed instruction
system.cpu2.op_class::SimdFloatSqrt                 0                       # Class of executed instruction
system.cpu2.op_class::SimdReduceAdd                 0                       # Class of executed instruction
system.cpu2.op_class::SimdReduceAlu                 0                       # Class of executed instruction
system.cpu2.op_class::SimdReduceCmp                 0                       # Class of executed instruction
system.cpu2.op_class::SimdFloatReduceAdd            0                       # Class of executed instruction
system.cpu2.op_class::SimdFloatReduceCmp            0                       # Class of executed instruction
system.cpu2.op_class::SimdAes                       0                       # Class of executed instruction
system.cpu2.op_class::SimdAesMix                    0                       # Class of executed instruction
system.cpu2.op_class::SimdSha1Hash                  0                       # Class of executed instruction
system.cpu2.op_class::SimdSha1Hash2                 0                       # Class of executed instruction
system.cpu2.op_class::SimdSha256Hash                0                       # Class of executed instruction
system.cpu2.op_class::SimdSha256Hash2               0                       # Class of executed instruction
system.cpu2.op_class::SimdShaSigma2                 0                       # Class of executed instruction
system.cpu2.op_class::SimdShaSigma3                 0                       # Class of executed instruction
system.cpu2.op_class::SimdPredAlu                   0                       # Class of executed instruction
system.cpu2.op_class::MemRead                       0                       # Class of executed instruction
system.cpu2.op_class::MemWrite                      0                       # Class of executed instruction
system.cpu2.op_class::FloatMemRead                  0                       # Class of executed instruction
system.cpu2.op_class::FloatMemWrite                 0                       # Class of executed instruction
system.cpu2.op_class::IprAccess                     0                       # Class of executed instruction
system.cpu2.op_class::InstPrefetch                  0                       # Class of executed instruction
system.cpu2.op_class::total                         0                       # Class of executed instruction
system.cpu3.committedInsts                          0                       # Number of instructions committed
system.cpu3.committedOps                            0                       # Number of ops (including micro ops) committed
system.cpu3.dtb.data_accesses                       0                       # DTB accesses
system.cpu3.dtb.data_acv                            0                       # DTB access violations
system.cpu3.dtb.data_hits                           0                       # DTB hits
system.cpu3.dtb.data_misses                         0                       # DTB misses
system.cpu3.dtb.fetch_accesses                      0                       # ITB accesses
system.cpu3.dtb.fetch_acv                           0                       # ITB acv
system.cpu3.dtb.fetch_hits                          0                       # ITB hits
system.cpu3.dtb.fetch_misses                        0                       # ITB misses
system.cpu3.dtb.read_accesses                       0                       # DTB read accesses
system.cpu3.dtb.read_acv                            0                       # DTB read access violations
system.cpu3.dtb.read_hits                           0                       # DTB read hits
system.cpu3.dtb.read_misses                         0                       # DTB read misses
system.cpu3.dtb.write_accesses                      0                       # DTB write accesses
system.cpu3.dtb.write_acv                           0                       # DTB write access violations
system.cpu3.dtb.write_hits                          0                       # DTB write hits
system.cpu3.dtb.write_misses                        0                       # DTB write misses
system.cpu3.idle_fraction                           1                       # Percentage of idle cycles
system.cpu3.itb.data_accesses                       0                       # DTB accesses
system.cpu3.itb.data_acv                            0                       # DTB access violations
system.cpu3.itb.data_hits                           0                       # DTB hits
system.cpu3.itb.data_misses                         0                       # DTB misses
system.cpu3.itb.fetch_accesses                      0                       # ITB accesses
system.cpu3.itb.fetch_acv                           0                       # ITB acv
system.cpu3.itb.fetch_hits                          0                       # ITB hits
system.cpu3.itb.fetch_misses                        0                       # ITB misses
system.cpu3.itb.read_accesses                       0                       # DTB read accesses
system.cpu3.itb.read_acv                            0                       # DTB read access violations
system.cpu3.itb.read_hits                           0                       # DTB read hits
system.cpu3.itb.read_misses                         0                       # DTB read misses
system.cpu3.itb.write_accesses                      0                       # DTB write accesses
system.cpu3.itb.write_acv                           0                       # DTB write access violations
system.cpu3.itb.write_hits                          0                       # DTB write hits
system.cpu3.itb.write_misses                        0                       # DTB write misses
system.cpu3.kern.callpal::wripir                    3      0.49%      0.49% # number of callpals executed
system.cpu3.kern.callpal::swpctx                   53      8.66%      9.15% # number of callpals executed
system.cpu3.kern.callpal::swpipl                  431     70.42%     79.58% # number of callpals executed
system.cpu3.kern.callpal::rdps                      5      0.82%     80.39% # number of callpals executed
system.cpu3.kern.callpal::wrusp                     1      0.16%     80.56% # number of callpals executed
system.cpu3.kern.callpal::rti                     102     16.67%     97.22% # number of callpals executed
system.cpu3.kern.callpal::callsys                  15      2.45%     99.67% # number of callpals executed
system.cpu3.kern.callpal::imb                       2      0.33%    100.00% # number of callpals executed
system.cpu3.kern.callpal::total                   612                       # number of callpals executed
system.cpu3.kern.inst.arm                           0                       # number of arm instructions executed
system.cpu3.kern.inst.hwrei                      1250                       # number of hwrei instructions executed
system.cpu3.kern.inst.quiesce                       0                       # number of quiesce instructions executed
system.cpu3.kern.ipl_count::0                     259     48.32%     48.32% # number of times we switched to this ipl
system.cpu3.kern.ipl_count::22                      2      0.37%     48.69% # number of times we switched to this ipl
system.cpu3.kern.ipl_count::30                      1      0.19%     48.88% # number of times we switched to this ipl
system.cpu3.kern.ipl_count::31                    274     51.12%    100.00% # number of times we switched to this ipl
system.cpu3.kern.ipl_count::total                 536                       # number of times we switched to this ipl
system.cpu3.kern.ipl_good::0                      257     49.81%     49.81% # number of times we switched to this ipl from a different ipl
system.cpu3.kern.ipl_good::22                       2      0.39%     50.19% # number of times we switched to this ipl from a different ipl
system.cpu3.kern.ipl_good::30                       1      0.19%     50.39% # number of times we switched to this ipl from a different ipl
system.cpu3.kern.ipl_good::31                     256     49.61%    100.00% # number of times we switched to this ipl from a different ipl
system.cpu3.kern.ipl_good::total                  516                       # number of times we switched to this ipl from a different ipl
system.cpu3.kern.ipl_ticks::0              1642337500     97.55%     97.55% # number of cycles we spent at this ipl
system.cpu3.kern.ipl_ticks::22                1073500      0.06%     97.62% # number of cycles we spent at this ipl
system.cpu3.kern.ipl_ticks::30                 566000      0.03%     97.65% # number of cycles we spent at this ipl
system.cpu3.kern.ipl_ticks::31               39579500      2.35%    100.00% # number of cycles we spent at this ipl
system.cpu3.kern.ipl_ticks::total          1683556500                       # number of cycles we spent at this ipl
system.cpu3.kern.ipl_used::0                 0.992278                       # fraction of swpipl calls that actually changed the ipl
system.cpu3.kern.ipl_used::22                       1                       # fraction of swpipl calls that actually changed the ipl
system.cpu3.kern.ipl_used::30                       1                       # fraction of swpipl calls that actually changed the ipl
system.cpu3.kern.ipl_used::31                0.934307                       # fraction of swpipl calls that actually changed the ipl
system.cpu3.kern.ipl_used::total             0.962687                       # fraction of swpipl calls that actually changed the ipl
system.cpu3.kern.mode_good::kernel                 96                      
system.cpu3.kern.mode_good::user                   97                      
system.cpu3.kern.mode_good::idle                    0                      
system.cpu3.kern.mode_switch::kernel              154                       # number of protection mode switches
system.cpu3.kern.mode_switch::user                 97                       # number of protection mode switches
system.cpu3.kern.mode_switch::idle                  0                       # number of protection mode switches
system.cpu3.kern.mode_switch_good::kernel     0.623377                       # fraction of useful protection mode switches
system.cpu3.kern.mode_switch_good::user             1                       # fraction of useful protection mode switches
system.cpu3.kern.mode_switch_good::idle           nan                       # fraction of useful protection mode switches
system.cpu3.kern.mode_switch_good::total     0.768924                       # fraction of useful protection mode switches
system.cpu3.kern.mode_ticks::kernel        1475410000     86.25%     86.25% # number of ticks spent at the given mode
system.cpu3.kern.mode_ticks::user           235305000     13.75%    100.00% # number of ticks spent at the given mode
system.cpu3.kern.mode_ticks::idle                   0      0.00%    100.00% # number of ticks spent at the given mode
system.cpu3.kern.swap_context                      53                       # number of times the context was actually changed
system.cpu3.not_idle_fraction                       0                       # Percentage of non-idle cycles
system.cpu3.numCycles                               0                       # number of cpu cycles simulated
system.cpu3.numWorkItemsCompleted                   0                       # number of work items this cpu completed
system.cpu3.numWorkItemsStarted                     0                       # number of work items this cpu started
system.cpu3.num_busy_cycles                         0                       # Number of busy cycles
system.cpu3.num_conditional_control_insts            0                       # number of instructions that are conditional controls
system.cpu3.num_fp_alu_accesses                     0                       # Number of float alu accesses
system.cpu3.num_fp_insts                            0                       # number of float instructions
system.cpu3.num_fp_register_reads                   0                       # number of times the floating registers were read
system.cpu3.num_fp_register_writes                  0                       # number of times the floating registers were written
system.cpu3.num_func_calls                          0                       # number of times a function call or return occured
system.cpu3.num_idle_cycles                         0                       # Number of idle cycles
system.cpu3.num_int_alu_accesses                    0                       # Number of integer alu accesses
system.cpu3.num_int_insts                           0                       # number of integer instructions
system.cpu3.num_int_register_reads                  0                       # number of times the integer registers were read
system.cpu3.num_int_register_writes                 0                       # number of times the integer registers were written
system.cpu3.num_load_insts                          0                       # Number of load instructions
system.cpu3.num_mem_refs                            0                       # number of memory refs
system.cpu3.num_store_insts                         0                       # Number of store instructions
system.cpu3.num_vec_alu_accesses                    0                       # Number of vector alu accesses
system.cpu3.num_vec_insts                           0                       # number of vector instructions
system.cpu3.num_vec_register_reads                  0                       # number of times the vector registers were read
system.cpu3.num_vec_register_writes                 0                       # number of times the vector registers were written
system.cpu3.op_class::No_OpClass                    0                       # Class of executed instruction
system.cpu3.op_class::IntAlu                        0                       # Class of executed instruction
system.cpu3.op_class::IntMult                       0                       # Class of executed instruction
system.cpu3.op_class::IntDiv                        0                       # Class of executed instruction
system.cpu3.op_class::FloatAdd                      0                       # Class of executed instruction
system.cpu3.op_class::FloatCmp                      0                       # Class of executed instruction
system.cpu3.op_class::FloatCvt                      0                       # Class of executed instruction
system.cpu3.op_class::FloatMult                     0                       # Class of executed instruction
system.cpu3.op_class::FloatMultAcc                  0                       # Class of executed instruction
system.cpu3.op_class::FloatDiv                      0                       # Class of executed instruction
system.cpu3.op_class::FloatMisc                     0                       # Class of executed instruction
system.cpu3.op_class::FloatSqrt                     0                       # Class of executed instruction
system.cpu3.op_class::SimdAdd                       0                       # Class of executed instruction
system.cpu3.op_class::SimdAddAcc                    0                       # Class of executed instruction
system.cpu3.op_class::SimdAlu                       0                       # Class of executed instruction
system.cpu3.op_class::SimdCmp                       0                       # Class of executed instruction
system.cpu3.op_class::SimdCvt                       0                       # Class of executed instruction
system.cpu3.op_class::SimdMisc                      0                       # Class of executed instruction
system.cpu3.op_class::SimdMult                      0                       # Class of executed instruction
system.cpu3.op_class::SimdMultAcc                   0                       # Class of executed instruction
system.cpu3.op_class::SimdShift                     0                       # Class of executed instruction
system.cpu3.op_class::SimdShiftAcc                  0                       # Class of executed instruction
system.cpu3.op_class::SimdDiv                       0                       # Class of executed instruction
system.cpu3.op_class::SimdSqrt                      0                       # Class of executed instruction
system.cpu3.op_class::SimdFloatAdd                  0                       # Class of executed instruction
system.cpu3.op_class::SimdFloatAlu                  0                       # Class of executed instruction
system.cpu3.op_class::SimdFloatCmp                  0                       # Class of executed instruction
system.cpu3.op_class::SimdFloatCvt                  0                       # Class of executed instruction
system.cpu3.op_class::SimdFloatDiv                  0                       # Class of executed instruction
system.cpu3.op_class::SimdFloatMisc                 0                       # Class of executed instruction
system.cpu3.op_class::SimdFloatMult                 0                       # Class of executed instruction
system.cpu3.op_class::SimdFloatMultAcc              0                       # Class of executed instruction
system.cpu3.op_class::SimdFloatSqrt                 0                       # Class of executed instruction
system.cpu3.op_class::SimdReduceAdd                 0                       # Class of executed instruction
system.cpu3.op_class::SimdReduceAlu                 0                       # Class of executed instruction
system.cpu3.op_class::SimdReduceCmp                 0                       # Class of executed instruction
system.cpu3.op_class::SimdFloatReduceAdd            0                       # Class of executed instruction
system.cpu3.op_class::SimdFloatReduceCmp            0                       # Class of executed instruction
system.cpu3.op_class::SimdAes                       0                       # Class of executed instruction
system.cpu3.op_class::SimdAesMix                    0                       # Class of executed instruction
system.cpu3.op_class::SimdSha1Hash                  0                       # Class of executed instruction
system.cpu3.op_class::SimdSha1Hash2                 0                       # Class of executed instruction
system.cpu3.op_class::SimdSha256Hash                0                       # Class of executed instruction
system.cpu3.op_class::SimdSha256Hash2               0                       # Class of executed instruction
system.cpu3.op_class::SimdShaSigma2                 0                       # Class of executed instruction
system.cpu3.op_class::SimdShaSigma3                 0                       # Class of executed instruction
system.cpu3.op_class::SimdPredAlu                   0                       # Class of executed instruction
system.cpu3.op_class::MemRead                       0                       # Class of executed instruction
system.cpu3.op_class::MemWrite                      0                       # Class of executed instruction
system.cpu3.op_class::FloatMemRead                  0                       # Class of executed instruction
system.cpu3.op_class::FloatMemWrite                 0                       # Class of executed instruction
system.cpu3.op_class::IprAccess                     0                       # Class of executed instruction
system.cpu3.op_class::InstPrefetch                  0                       # Class of executed instruction
system.cpu3.op_class::total                         0                       # Class of executed instruction
system.disks.dma_read_bytes                         0                       # Number of bytes transfered via DMA reads (not PRD).
system.disks.dma_read_full_pages                    0                       # Number of full page size DMA reads (not PRD).
system.disks.dma_read_txs                           0                       # Number of DMA read transactions (not PRD).
system.disks.dma_write_bytes                        0                       # Number of bytes transfered via DMA writes.
system.disks.dma_write_full_pages                   0                       # Number of full page size DMA writes.
system.disks.dma_write_txs                          0                       # Number of DMA write transactions.
system.membus.snoop_filter.hit_multi_requests            1                       # Number of requests hitting in the snoop filter with multiple (>1) holders of the requested data.
system.membus.snoop_filter.hit_multi_snoops            0                       # Number of snoops hitting in the snoop filter with multiple (>1) holders of the requested data.
system.membus.snoop_filter.hit_single_requests         3807                       # Number of requests hitting in the snoop filter with a single holder of the requested data.
system.membus.snoop_filter.hit_single_snoops            0                       # Number of snoops hitting in the snoop filter with a single holder of the requested data.
system.membus.snoop_filter.tot_requests          7179                       # Total number of requests made to the snoop filter.
system.membus.snoop_filter.tot_snoops               0                       # Total number of snoops made to the snoop filter.
system.switch_cpus0.Branches                    24009                       # Number of branches fetched
system.switch_cpus0.committedInsts             171893                       # Number of instructions committed
system.switch_cpus0.committedOps               171893                       # Number of ops (including micro ops) committed
system.switch_cpus0.dtb.data_accesses           12739                       # DTB accesses
system.switch_cpus0.dtb.data_acv                    7                       # DTB access violations
system.switch_cpus0.dtb.data_hits               64317                       # DTB hits
system.switch_cpus0.dtb.data_misses               105                       # DTB misses
system.switch_cpus0.dtb.fetch_accesses              0                       # ITB accesses
system.switch_cpus0.dtb.fetch_acv                   0                       # ITB acv
system.switch_cpus0.dtb.fetch_hits                  0                       # ITB hits
system.switch_cpus0.dtb.fetch_misses                0                       # ITB misses
system.switch_cpus0.dtb.read_accesses            8142                       # DTB read accesses
system.switch_cpus0.dtb.read_acv                    0                       # DTB read access violations
system.switch_cpus0.dtb.read_hits               35200                       # DTB read hits
system.switch_cpus0.dtb.read_misses                90                       # DTB read misses
system.switch_cpus0.dtb.write_accesses           4597                       # DTB write accesses
system.switch_cpus0.dtb.write_acv                   7                       # DTB write access violations
system.switch_cpus0.dtb.write_hits              29117                       # DTB write hits
system.switch_cpus0.dtb.write_misses               15                       # DTB write misses
system.switch_cpus0.idle_fraction            0.776957                       # Percentage of idle cycles
system.switch_cpus0.itb.data_accesses               0                       # DTB accesses
system.switch_cpus0.itb.data_acv                    0                       # DTB access violations
system.switch_cpus0.itb.data_hits                   0                       # DTB hits
system.switch_cpus0.itb.data_misses                 0                       # DTB misses
system.switch_cpus0.itb.fetch_accesses          44313                       # ITB accesses
system.switch_cpus0.itb.fetch_acv                   0                       # ITB acv
system.switch_cpus0.itb.fetch_hits              44219                       # ITB hits
system.switch_cpus0.itb.fetch_misses               94                       # ITB misses
system.switch_cpus0.itb.read_accesses               0                       # DTB read accesses
system.switch_cpus0.itb.read_acv                    0                       # DTB read access violations
system.switch_cpus0.itb.read_hits                   0                       # DTB read hits
system.switch_cpus0.itb.read_misses                 0                       # DTB read misses
system.switch_cpus0.itb.write_accesses              0                       # DTB write accesses
system.switch_cpus0.itb.write_acv                   0                       # DTB write access violations
system.switch_cpus0.itb.write_hits                  0                       # DTB write hits
system.switch_cpus0.itb.write_misses                0                       # DTB write misses
system.switch_cpus0.kern.inst.arm                   0                       # number of arm instructions executed
system.switch_cpus0.kern.inst.hwrei                 0                       # number of hwrei instructions executed
system.switch_cpus0.kern.inst.quiesce               0                       # number of quiesce instructions executed
system.switch_cpus0.kern.mode_good::kernel            0                      
system.switch_cpus0.kern.mode_good::user            0                      
system.switch_cpus0.kern.mode_good::idle            0                      
system.switch_cpus0.kern.mode_switch::kernel            0                       # number of protection mode switches
system.switch_cpus0.kern.mode_switch::user            0                       # number of protection mode switches
system.switch_cpus0.kern.mode_switch::idle            0                       # number of protection mode switches
system.switch_cpus0.kern.mode_switch_good::kernel          nan                       # fraction of useful protection mode switches
system.switch_cpus0.kern.mode_switch_good::user          nan                       # fraction of useful protection mode switches
system.switch_cpus0.kern.mode_switch_good::idle          nan                       # fraction of useful protection mode switches
system.switch_cpus0.kern.mode_switch_good::total          nan                       # fraction of useful protection mode switches
system.switch_cpus0.kern.mode_ticks::kernel            0                       # number of ticks spent at the given mode
system.switch_cpus0.kern.mode_ticks::user            0                       # number of ticks spent at the given mode
system.switch_cpus0.kern.mode_ticks::idle            0                       # number of ticks spent at the given mode
system.switch_cpus0.kern.swap_context               0                       # number of times the context was actually changed
system.switch_cpus0.not_idle_fraction        0.223043                       # Percentage of non-idle cycles
system.switch_cpus0.numCycles                 2904096                       # number of cpu cycles simulated
system.switch_cpus0.numWorkItemsCompleted            0                       # number of work items this cpu completed
system.switch_cpus0.numWorkItemsStarted             0                       # number of work items this cpu started
system.switch_cpus0.num_busy_cycles      647737.489780                       # Number of busy cycles
system.switch_cpus0.num_conditional_control_insts        17631                       # number of instructions that are conditional controls
system.switch_cpus0.num_fp_alu_accesses           246                       # Number of float alu accesses
system.switch_cpus0.num_fp_insts                  246                       # number of float instructions
system.switch_cpus0.num_fp_register_reads          119                       # number of times the floating registers were read
system.switch_cpus0.num_fp_register_writes          102                       # number of times the floating registers were written
system.switch_cpus0.num_func_calls               4359                       # number of times a function call or return occured
system.switch_cpus0.num_idle_cycles      2256358.510220                       # Number of idle cycles
system.switch_cpus0.num_int_alu_accesses       165871                       # Number of integer alu accesses
system.switch_cpus0.num_int_insts              165871                       # number of integer instructions
system.switch_cpus0.num_int_register_reads       229445                       # number of times the integer registers were read
system.switch_cpus0.num_int_register_writes       118048                       # number of times the integer registers were written
system.switch_cpus0.num_load_insts              35404                       # Number of load instructions
system.switch_cpus0.num_mem_refs                64583                       # number of memory refs
system.switch_cpus0.num_store_insts             29179                       # Number of store instructions
system.switch_cpus0.num_vec_alu_accesses            0                       # Number of vector alu accesses
system.switch_cpus0.num_vec_insts                   0                       # number of vector instructions
system.switch_cpus0.num_vec_register_reads            0                       # number of times the vector registers were read
system.switch_cpus0.num_vec_register_writes            0                       # number of times the vector registers were written
system.switch_cpus0.op_class::No_OpClass         2879      1.67%      1.67% # Class of executed instruction
system.switch_cpus0.op_class::IntAlu            99614     57.91%     59.59% # Class of executed instruction
system.switch_cpus0.op_class::IntMult             176      0.10%     59.69% # Class of executed instruction
system.switch_cpus0.op_class::IntDiv                0      0.00%     59.69% # Class of executed instruction
system.switch_cpus0.op_class::FloatAdd             31      0.02%     59.71% # Class of executed instruction
system.switch_cpus0.op_class::FloatCmp              0      0.00%     59.71% # Class of executed instruction
[...]
system.mem_ctrls.rdPerTurnAround::total          6441                       # Reads before turning the bus around for writes
system.mem_ctrls.wrPerTurnAround::samples         6441                       # Writes before turning the bus around for reads
system.mem_ctrls.wrPerTurnAround::mean      16.719454                       # Writes before turning the bus around for reads
system.mem_ctrls.wrPerTurnAround::gmean     16.678317                       # Writes before turning the bus around for reads
system.mem_ctrls.wrPerTurnAround::stdev      1.296918                       # Writes before turning the bus around for reads
system.mem_ctrls.wrPerTurnAround::16             4272     66.33%     66.33% # Writes before turning the bus around for reads
system.mem_ctrls.wrPerTurnAround::17              182      2.83%     69.15% # Writes before turning the bus around for reads
system.mem_ctrls.wrPerTurnAround::18             1809     28.09%     97.24% # Writes before turning the bus around for reads
system.mem_ctrls.wrPerTurnAround::19              114      1.77%     99.01% # Writes before turning the bus around for reads
system.mem_ctrls.wrPerTurnAround::20               23      0.36%     99.36% # Writes before turning the bus around for reads
system.mem_ctrls.wrPerTurnAround::21                6      0.09%     99.46% # Writes before turning the bus around for reads
system.mem_ctrls.wrPerTurnAround::22                7      0.11%     99.57% # Writes before turning the bus around for reads
system.mem_ctrls.wrPerTurnAround::23               10      0.16%     99.72% # Writes before turning the bus around for reads
system.mem_ctrls.wrPerTurnAround::24                4      0.06%     99.78% # Writes before turning the bus around for reads
system.mem_ctrls.wrPerTurnAround::25                4      0.06%     99.84% # Writes before turning the bus around for reads
system.mem_ctrls.wrPerTurnAround::26                1      0.02%     99.86% # Writes before turning the bus around for reads
system.mem_ctrls.wrPerTurnAround::30                2      0.03%     99.89% # Writes before turning the bus around for reads
system.mem_ctrls.wrPerTurnAround::32                1      0.02%     99.91% # Writes before turning the bus around for reads
system.mem_ctrls.wrPerTurnAround::33                1      0.02%     99.92% # Writes before turning the bus around for reads
system.mem_ctrls.wrPerTurnAround::38                2      0.03%     99.95% # Writes before turning the bus around for reads
system.mem_ctrls.wrPerTurnAround::40                1      0.02%     99.97% # Writes before turning the bus around for reads
system.mem_ctrls.wrPerTurnAround::41                1      0.02%     99.98% # Writes before turning the bus around for reads
system.mem_ctrls.wrPerTurnAround::42                1      0.02%    100.00% # Writes before turning the bus around for reads
system.mem_ctrls.wrPerTurnAround::total          6441                       # Writes before turning the bus around for reads
system.mem_ctrls.bytesReadDRAM                9639936                       # Total number of bytes read from DRAM
system.mem_ctrls.bytesReadWrQ                    1472                       # Total number of bytes read from write queue
system.mem_ctrls.bytesWritten                 6892160                       # Total number of bytes written to DRAM
system.mem_ctrls.bytesReadSys                 9641408                       # Total read bytes from the system interface side
system.mem_ctrls.bytesWrittenSys              6892416                       # Total written bytes from the system interface side
system.mem_ctrls.avgRdBW                       200.06                       # Average DRAM read bandwidth in MiByte/s
system.mem_ctrls.avgWrBW                       143.03                       # Average achieved write bandwidth in MiByte/s
system.mem_ctrls.avgRdBWSys                    200.09                       # Average system read bandwidth in MiByte/s
system.mem_ctrls.avgWrBWSys                    143.04                       # Average system write bandwidth in MiByte/s
system.mem_ctrls.peakBW                      12800.00                       # Theoretical peak bandwidth in MiByte/s
system.mem_ctrls.busUtil                         2.68                       # Data bus utilization in percentage
system.mem_ctrls.busUtilRead                     1.56                       # Data bus utilization in percentage for reads
system.mem_ctrls.busUtilWrite                    1.12                       # Data bus utilization in percentage for writes
system.mem_ctrls.totGap                   48184756500                       # Total gap between requests
system.mem_ctrls.avgGap                     186516.10                       # Average gap between requests
system.mem_ctrls.masterReadBytes::.switch_cpus0.inst       104064                       # Per-master bytes read from memory
system.mem_ctrls.masterReadBytes::.switch_cpus0.data      1178944                       # Per-master bytes read from memory
system.mem_ctrls.masterReadBytes::.switch_cpus1.inst         3520                       # Per-master bytes read from memory
system.mem_ctrls.masterReadBytes::.switch_cpus1.data       602240                       # Per-master bytes read from memory
system.mem_ctrls.masterReadBytes::.switch_cpus2.inst       357056                       # Per-master bytes read from memory
system.mem_ctrls.masterReadBytes::.switch_cpus2.data      6516800                       # Per-master bytes read from memory
system.mem_ctrls.masterReadBytes::.switch_cpus3.inst        30400                       # Per-master bytes read from memory
system.mem_ctrls.masterReadBytes::.switch_cpus3.data       846912                       # Per-master bytes read from memory
system.mem_ctrls.masterWriteBytes::.writebacks      6892160                       # Per-master bytes write to memory
system.mem_ctrls.masterReadRate::.switch_cpus0.inst 2159639.719697591383                       # Per-master bytes read from memory rate (Bytes/sec)
system.mem_ctrls.masterReadRate::.switch_cpus0.data 24466619.481272652745                       # Per-master bytes read from memory rate (Bytes/sec)
system.mem_ctrls.masterReadRate::.switch_cpus1.inst 73050.544024211282                       # Per-master bytes read from memory rate (Bytes/sec)
system.mem_ctrls.masterReadRate::.switch_cpus1.data 12498283.986687783152                       # Per-master bytes read from memory rate (Bytes/sec)
system.mem_ctrls.masterReadRate::.switch_cpus2.inst 7409981.547474085353                       # Per-master bytes read from memory rate (Bytes/sec)
system.mem_ctrls.masterReadRate::.switch_cpus2.data 135243120.823005706072                       # Per-master bytes read from memory rate (Bytes/sec)
system.mem_ctrls.masterReadRate::.switch_cpus3.inst 630891.062027279171                       # Per-master bytes read from memory rate (Bytes/sec)
system.mem_ctrls.masterReadRate::.switch_cpus3.data 17575960.892225231975                       # Per-master bytes read from memory rate (Bytes/sec)
system.mem_ctrls.masterWriteRate::.writebacks 143032965.199405670166                       # Per-master bytes write to memory rate (Bytes/sec)
system.mem_ctrls.masterReadAccesses::.switch_cpus0.inst         1626                       # Per-master read serviced memory accesses
system.mem_ctrls.masterReadAccesses::.switch_cpus0.data        18428                       # Per-master read serviced memory accesses
system.mem_ctrls.masterReadAccesses::.switch_cpus1.inst           55                       # Per-master read serviced memory accesses
system.mem_ctrls.masterReadAccesses::.switch_cpus1.data         9411                       # Per-master read serviced memory accesses
system.mem_ctrls.masterReadAccesses::.switch_cpus2.inst         5579                       # Per-master read serviced memory accesses
system.mem_ctrls.masterReadAccesses::.switch_cpus2.data       101839                       # Per-master read serviced memory accesses
system.mem_ctrls.masterReadAccesses::.switch_cpus3.inst          475                       # Per-master read serviced memory accesses
system.mem_ctrls.masterReadAccesses::.switch_cpus3.data        13234                       # Per-master read serviced memory accesses
system.mem_ctrls.masterWriteAccesses::.writebacks       107694                       # Per-master write serviced memory accesses
system.mem_ctrls.masterReadTotalLat::.switch_cpus0.inst     52633250                       # Per-master read total memory access latency
system.mem_ctrls.masterReadTotalLat::.switch_cpus0.data    620127250                       # Per-master read total memory access latency
system.mem_ctrls.masterReadTotalLat::.switch_cpus1.inst      2352500                       # Per-master read total memory access latency
system.mem_ctrls.masterReadTotalLat::.switch_cpus1.data    377050500                       # Per-master read total memory access latency
system.mem_ctrls.masterReadTotalLat::.switch_cpus2.inst    183599000                       # Per-master read total memory access latency
system.mem_ctrls.masterReadTotalLat::.switch_cpus2.data   3233682000                       # Per-master read total memory access latency
system.mem_ctrls.masterReadTotalLat::.switch_cpus3.inst     15688500                       # Per-master read total memory access latency
system.mem_ctrls.masterReadTotalLat::.switch_cpus3.data    509537750                       # Per-master read total memory access latency
system.mem_ctrls.masterWriteTotalLat::.writebacks 1164244448250                       # Per-master write total memory access latency
system.mem_ctrls.masterReadAvgLat::.switch_cpus0.inst     32369.77                       # Per-master read average memory access latency
system.mem_ctrls.masterReadAvgLat::.switch_cpus0.data     33651.36                       # Per-master read average memory access latency
system.mem_ctrls.masterReadAvgLat::.switch_cpus1.inst     42772.73                       # Per-master read average memory access latency
system.mem_ctrls.masterReadAvgLat::.switch_cpus1.data     40064.87                       # Per-master read average memory access latency
system.mem_ctrls.masterReadAvgLat::.switch_cpus2.inst     32908.94                       # Per-master read average memory access latency
system.mem_ctrls.masterReadAvgLat::.switch_cpus2.data     31752.88                       # Per-master read average memory access latency
system.mem_ctrls.masterReadAvgLat::.switch_cpus3.inst     33028.42                       # Per-master read average memory access latency
system.mem_ctrls.masterReadAvgLat::.switch_cpus3.data     38502.17                       # Per-master read average memory access latency
system.mem_ctrls.masterWriteAvgLat::.writebacks  10810671.42                       # Per-master write average memory access latency
system.mem_ctrls.pageHitRate                    64.55                       # Row buffer hit rate, read and write combined
system.mem_ctrls.rank1.actEnergy            326090940                       # Energy for activate commands per rank (pJ)
system.mem_ctrls.rank1.preEnergy            173321445                       # Energy for precharge commands per rank (pJ)
system.mem_ctrls.rank1.readEnergy           539184240                       # Energy for read commands per rank (pJ)
system.mem_ctrls.rank1.writeEnergy          278570520                       # Energy for write commands per rank (pJ)
system.mem_ctrls.rank1.refreshEnergy     3803392320.000000                       # Energy for refresh commands per rank (pJ)
system.mem_ctrls.rank1.actBackEnergy      11411353830                       # Energy for active background per rank (pJ)
system.mem_ctrls.rank1.preBackEnergy       8893791840                       # Energy for precharge background per rank (pJ)
system.mem_ctrls.rank1.actPowerDownEnergy            0                       # Energy for active power-down per rank (pJ)
system.mem_ctrls.rank1.prePowerDownEnergy            0                       # Energy for precharge power-down per rank (pJ)
system.mem_ctrls.rank1.selfRefreshEnergy            0                       # Energy for self refresh per rank (pJ)
system.mem_ctrls.rank1.totalEnergy        25425705135                       # Total energy per rank (pJ)
system.mem_ctrls.rank1.averagePower        527.659543                       # Core power per rank (mW)
system.mem_ctrls.rank1.totalIdleTime                0                       # Total Idle time Per DRAM Rank
system.mem_ctrls.rank1.memoryStateTime::IDLE  22956767000                       # Time in different power states
system.mem_ctrls.rank1.memoryStateTime::REF   1608880000                       # Time in different power states
system.mem_ctrls.rank1.memoryStateTime::SREF            0                       # Time in different power states
system.mem_ctrls.rank1.memoryStateTime::PRE_PDN            0                       # Time in different power states
system.mem_ctrls.rank1.memoryStateTime::ACT  23620168000                       # Time in different power states
system.mem_ctrls.rank1.memoryStateTime::ACT_PDN            0                       # Time in different power states
system.mem_ctrls.rank0.actEnergy            327726000                       # Energy for activate commands per rank (pJ)
system.mem_ctrls.rank0.preEnergy            174198090                       # Energy for precharge commands per rank (pJ)
system.mem_ctrls.rank0.readEnergy           536271120                       # Energy for read commands per rank (pJ)
system.mem_ctrls.rank0.writeEnergy          283571280                       # Energy for write commands per rank (pJ)
system.mem_ctrls.rank0.refreshEnergy     3803392320.000000                       # Energy for refresh commands per rank (pJ)
system.mem_ctrls.rank0.actBackEnergy      11392052490                       # Energy for active background per rank (pJ)
system.mem_ctrls.rank0.preBackEnergy       8910045600                       # Energy for precharge background per rank (pJ)
system.mem_ctrls.rank0.actPowerDownEnergy            0                       # Energy for active power-down per rank (pJ)
system.mem_ctrls.rank0.prePowerDownEnergy            0                       # Energy for precharge power-down per rank (pJ)
system.mem_ctrls.rank0.selfRefreshEnergy            0                       # Energy for self refresh per rank (pJ)
system.mem_ctrls.rank0.totalEnergy        25427256900                       # Total energy per rank (pJ)
system.mem_ctrls.rank0.averagePower        527.691747                       # Core power per rank (mW)
system.mem_ctrls.rank0.totalIdleTime                0                       # Total Idle time Per DRAM Rank
system.mem_ctrls.rank0.memoryStateTime::IDLE  22993057250                       # Time in different power states
system.mem_ctrls.rank0.memoryStateTime::REF   1608880000                       # Time in different power states
system.mem_ctrls.rank0.memoryStateTime::SREF            0                       # Time in different power states
system.mem_ctrls.rank0.memoryStateTime::PRE_PDN            0                       # Time in different power states
system.mem_ctrls.rank0.memoryStateTime::ACT  23583877750                       # Time in different power states
system.mem_ctrls.rank0.memoryStateTime::ACT_PDN            0                       # Time in different power states
system.iobus.pwrStateResidencyTicks::UNDEFINED  48185815000                       # Cumulative time (in ticks) in various power states
system.iobus.trans_dist::ReadReq                  382                       # Transaction distribution
system.iobus.trans_dist::ReadResp                 382                       # Transaction distribution
system.iobus.trans_dist::WriteReq                2438                       # Transaction distribution
system.iobus.trans_dist::WriteResp               2438                       # Transaction distribution
system.iobus.pkt_count_system.bridge.master::system.tsunami.cchip.pio          738                       # Packet count per connected master and slave (bytes)
system.iobus.pkt_count_system.bridge.master::system.tsunami.io.pio           32                       # Packet count per connected master and slave (bytes)
system.iobus.pkt_count_system.bridge.master::system.tsunami.uart.pio          976                       # Packet count per connected master and slave (bytes)
system.iobus.pkt_count_system.bridge.master::system.tsunami.ide.pio           48                       # Packet count per connected master and slave (bytes)
system.iobus.pkt_count_system.bridge.master::total         1794                       # Packet count per connected master and slave (bytes)
system.iobus.pkt_count_system.tsunami.ide.dma::system.iocache.cpu_side         3846                       # Packet count per connected master and slave (bytes)
system.iobus.pkt_count_system.tsunami.ide.dma::total         3846                       # Packet count per connected master and slave (bytes)
system.iobus.pkt_count::total                    5640                       # Packet count per connected master and slave (bytes)
system.iobus.pkt_size_system.bridge.master::system.tsunami.cchip.pio         2952                       # Cumulative packet size per connected master and slave (bytes)
system.iobus.pkt_size_system.bridge.master::system.tsunami.io.pio           44                       # Cumulative packet size per connected master and slave (bytes)
system.iobus.pkt_size_system.bridge.master::system.tsunami.uart.pio          488                       # Cumulative packet size per connected master and slave (bytes)
system.iobus.pkt_size_system.bridge.master::system.tsunami.ide.pio           27                       # Cumulative packet size per connected master and slave (bytes)
system.iobus.pkt_size_system.bridge.master::total         3511                       # Cumulative packet size per connected master and slave (bytes)
system.iobus.pkt_size_system.tsunami.ide.dma::system.iocache.cpu_side       122904                       # Cumulative packet size per connected master and slave (bytes)
system.iobus.pkt_size_system.tsunami.ide.dma::total       122904                       # Cumulative packet size per connected master and slave (bytes)
system.iobus.pkt_size::total                   126415                       # Cumulative packet size per connected master and slave (bytes)
system.iobus.reqLayer0.occupancy               785500                       # Layer occupancy (ticks)
system.iobus.reqLayer0.utilization                0.0                       # Layer utilization (%)
system.iobus.respLayer1.occupancy             1926000                       # Layer occupancy (ticks)
system.iobus.respLayer1.utilization               0.0                       # Layer utilization (%)
system.iobus.respLayer0.occupancy             1276000                       # Layer occupancy (ticks)
system.iobus.respLayer0.utilization               0.0                       # Layer utilization (%)
system.iobus.reqLayer27.occupancy            10049039                       # Layer occupancy (ticks)
system.iobus.reqLayer27.utilization               0.0                       # Layer utilization (%)
system.iobus.reqLayer25.occupancy               41500                       # Layer occupancy (ticks)
system.iobus.reqLayer25.utilization               0.0                       # Layer utilization (%)
system.iobus.reqLayer23.occupancy              791000                       # Layer occupancy (ticks)
system.iobus.reqLayer23.utilization               0.0                       # Layer utilization (%)
system.iobus.reqLayer22.occupancy               30500                       # Layer occupancy (ticks)
system.iobus.reqLayer22.utilization               0.0                       # Layer utilization (%)

---------- End Simulation Statistics   ----------
